This is a text.
new line.
This is a new line.